data_genice_CS1
#
#[A15] Frank, F.C., and JS Kasper. “Complex Alloy Structures Regarded as Sphere Packings. II. Analysis and Classification of Representative Structures.” Acta Crystallographica 12.7 (1959): 483–499.
#[sI] Jeffrey, G A. “Hydrate Inclusion Compounds.” Inclusion Compounds 1 (1984): 135–190.
#[CS1] Kosyakov, Viktor I, and T M Polyanskaya. “Using Structural Data for Estimating the Stability of Water Networks in Clathrate and Semiclathrate Hydrates.” Journal of Structural Chemistry 40.2 (1999): 239–245.
#[MEP] http://www.iza-structure.org/databases/
#
#Command line: ../genice.x CS1 --guest 14=g14*0.5 -G 0=me --rep 1 1 2 --format cif
_cell_length_a                12.003488636143597
_cell_length_b                12.003488636143597
_cell_length_c                24.006977272287195
_cell_angle_alpha             90.0
_cell_angle_beta              90.0
_cell_angle_gamma             90.0

_symmetry_cell_setting        'orthorhombic'
_symmetry_space_group_name_H-M   'P 1 '

loop_
  _symmetry_equiv_pos_as_xyz
X,Y,Z

loop_
_atom_site_label
_atom_site_type_symbol
_atom_site_fract_x
_atom_site_fract_y
_atom_site_fract_z
    O0     O    0.8889    0.3051    0.0001
    H1     H    0.8432    0.3721    0.0005
    H2     H    0.8645    0.2640    0.0312
    O3     O    0.3121   -0.0004    0.0586
    H4     H    0.3113    0.0007    0.0185
    H5     H    0.2674    0.0617    0.0692
    O6     O   -0.0040    0.2546    0.2488
    H7     H   -0.0020    0.2055    0.2178
    H8     H   -0.0027    0.2061    0.2809
    O9     O    0.6847    0.3094    0.3431
   H10     H    0.7265    0.3377    0.3121
   H11     H    0.6627    0.3743    0.3633
   O12     O    0.1806    0.1752    0.0931
   H13     H    0.2273    0.2232    0.1145
   H14     H    0.1597    0.2190    0.0613
   O15     O    0.0000    0.7534    0.2539
   H16     H   -0.0012    0.7969    0.2201
   H17     H   -0.0637    0.7068    0.2513
   O18     O    0.1814    0.8153    0.0888
   H19     H    0.2258    0.8778    0.0785
   H20     H    0.2288    0.7717    0.1126
   O21     O    0.5006    0.8071    0.1947
   H22     H    0.5006    0.8722    0.1714
   H23     H    0.5628    0.7646    0.1822
   O24     O    0.6183    0.4925    0.4076
   H25     H    0.5388    0.4954    0.4073
   H26     H    0.6410    0.5551    0.3855
   O27     O    0.8174    0.1839    0.4113
   H28     H    0.8797    0.1622    0.3886
   H29     H    0.7726    0.2287    0.3875
   O30     O    0.3192    0.3218    0.1539
   H31     H    0.3801    0.2790    0.1676
   H32     H    0.2767    0.3403    0.1866
   O33     O    0.1880    0.3855    0.2467
   H34     H    0.2308    0.3620    0.2782
   H35     H    0.1230    0.3392    0.2475
   O36     O    0.3175    0.6809    0.1576
   H37     H    0.2773    0.6604    0.1901
   H38     H    0.3796    0.7237    0.1713
   O39     O    0.3093    0.3153    0.3388
   H40     H    0.3360    0.3772    0.3610
   H41     H    0.3743    0.2750    0.3294
   O42     O    0.6932    0.0032    0.0546
   H43     H    0.6281    0.0031    0.0782
   H44     H    0.7351   -0.0595    0.0666
   O45     O    0.4998    0.1915    0.1884
   H46     H    0.4996    0.1905    0.2289
   H47     H    0.5630    0.2338    0.1788
   O48     O    0.8144    0.8217    0.0924
   H49     H    0.8379    0.7767    0.0613
   H50     H    0.7698    0.7733    0.1143
   O51     O    0.5019    0.8139    0.3085
   H52     H    0.5021    0.8116    0.2690
   H53     H    0.4388    0.7689    0.3192
   O54     O    0.8086    0.3882    0.2515
   H55     H    0.8733    0.3411    0.2511
   H56     H    0.7660    0.3645    0.2201
   O57     O    0.3052    0.0011    0.4423
   H58     H    0.3719    0.0013    0.4189
   H59     H    0.2651   -0.0616    0.4306
   O60     O    0.4948    0.1892    0.3064
   H61     H    0.5594    0.2327    0.3182
   H62     H    0.4966    0.1254    0.3288
   O63     O    0.3228    0.6811    0.3412
   H64     H    0.2772    0.6592    0.3104
   H65     H    0.2752    0.7268    0.3636
   O66     O    0.8810    0.6909    0.0033
   H67     H    0.8594    0.7344   -0.0285
   H68     H    0.9606    0.6905    0.0022
   O69     O    0.8147    0.8142    0.4056
   H70     H    0.8382    0.7752    0.4380
   H71     H    0.7741    0.8774    0.4196
   O72     O   -0.0020    0.1213    0.1558
   H73     H    0.0608    0.1420    0.1342
   H74     H   -0.0009    0.0408    0.1557
   O75     O    0.8152    0.1906    0.0911
   H76     H    0.8770    0.1636    0.1122
   H77     H    0.7756    0.1249    0.0801
   O78     O    0.8158    0.6158    0.2477
   H79     H    0.7709    0.6381    0.2794
   H80     H    0.8140    0.5372    0.2483
   O81     O    0.7540    0.4978    0.0036
   H82     H    0.7973    0.5638    0.0024
   H83     H    0.7093    0.5007   -0.0299
   O84     O    0.0015    0.8895    0.3444
   H85     H    0.0006    0.8436    0.3128
   H86     H   -0.0622    0.8649    0.3664
   O87     O    0.6843    0.6756    0.3406
   H88     H    0.6217    0.7214    0.3293
   H89     H    0.7279    0.7228    0.3633
   O90     O    0.5062   -0.0055    0.1256
   H91     H    0.5045    0.0613    0.1469
   H92     H    0.4403   -0.0019    0.1028
   O93     O   -0.0041    0.1231    0.3446
   H94     H    0.0596    0.1436    0.3658
   H95     H   -0.0030    0.0427    0.3445
   O96     O    0.1965    0.6174    0.2501
   H97     H    0.1237    0.6525    0.2506
   H98     H    0.1812    0.5403    0.2496
   O99     O    0.3823    0.4964    0.0945
  H100     H    0.3610    0.4350    0.1157
  H101     H    0.3605    0.5611    0.1170
  O102     O    0.3840    0.5000    0.4052
  H103     H    0.3603    0.5629    0.3835
  H104     H    0.3384    0.5022    0.4377
  O105     O    0.1788    0.1862    0.4077
  H106     H    0.2236    0.1227    0.4183
  H107     H    0.2262    0.2293    0.3846
  O108     O    0.0025    0.8882    0.1574
  H109     H    0.0647    0.8650    0.1355
  H110     H   -0.0614    0.8651    0.1363
  O111     O    0.1135    0.6853   -0.0002
  H112     H    0.1377    0.7287    0.0314
  H113     H    0.1362    0.7277   -0.0317
  O114     O    0.1215    0.3031   -0.0020
  H115     H    0.0425    0.3159   -0.0004
  H116     H    0.1536    0.3757   -0.0009
  O117     O    0.6857    0.3157    0.1622
  H118     H    0.7299    0.2718    0.1381
  H119     H    0.6617    0.3778    0.1394
  O120     O    0.6833    0.6884    0.1564
  H121     H    0.6612    0.6236    0.1367
  H122     H    0.7266    0.6607    0.1873
  O123     O    0.6167    0.4996    0.0978
  H124     H    0.6506    0.5001    0.0618
  H125     H    0.5382    0.4986    0.0904
  O126     O    0.1907    0.8167    0.4075
  H127     H    0.1627    0.7744    0.4382
  H128     H    0.1256    0.8384    0.3872
  O129     O    0.4995    0.0066    0.3733
  H130     H    0.5654    0.0027    0.3961
  H131     H    0.5014   -0.0596    0.3517
  O132     O    0.2471    0.4975   -0.0017
  H133     H    0.2912    0.4992    0.0320
  H134     H    0.2037    0.5633   -0.0001
  O135     O    0.6919   -0.0016    0.4415
  H136     H    0.7354    0.0627    0.4311
  H137     H    0.6913   -0.0003    0.4811
  O138     O    0.8781    0.3123    0.5023
  H139     H    0.8575    0.2696    0.4709
  H140     H    0.9588    0.3111    0.5022
  O141     O    0.3079   -0.0034    0.5596
  H142     H    0.2664    0.0591    0.5700
  H143     H    0.3070   -0.0024    0.5188
  O144     O    0.0026    0.2480    0.7498
  H145     H   -0.0635    0.2937    0.7510
  H146     H   -0.0013    0.2038    0.7825
  O147     O    0.6776    0.3146    0.8380
  H148     H    0.6583    0.3778    0.8601
  H149     H    0.7229    0.2696    0.8621
  O150     O    0.1878    0.1776    0.5887
  H151     H    0.1254    0.1554    0.6115
  H152     H    0.2314    0.2237    0.6123
  O153     O   -0.0015    0.7571    0.7509
  H154     H    0.0622    0.7076    0.7505
  H155     H   -0.0639    0.7089    0.7499
  O156     O    0.1859    0.8152    0.5927
  H157     H    0.1226    0.8417    0.6141
  H158     H    0.2238    0.8806    0.5819
  O159     O    0.5000    0.8051    0.6919
  H160     H    0.4995    0.8718    0.6690
  H161     H    0.4372    0.7643    0.6799
  O162     O    0.6233    0.5007    0.9056
  H163     H    0.5412    0.4995    0.9049
  H164     H    0.6426    0.5616    0.8839
  O165     O    0.8146    0.1809    0.9075
  H166     H    0.8367    0.2214    0.9411
  H167     H    0.7718    0.1213    0.9206
  O168     O    0.3116    0.3132    0.6597
  H169     H    0.3377    0.3762    0.6376
  H170     H    0.3767    0.2745    0.6695
  O171     O    0.1940    0.3874    0.7498
  H172     H    0.2352    0.3624    0.7190
  H173     H    0.1280    0.3400    0.7502
  O174     O    0.3211    0.6847    0.6563
  H175     H    0.2765    0.6617    0.6880
  H176     H    0.2734    0.7308    0.6353
  O177     O    0.3190    0.3209    0.8404
  H178     H    0.2741    0.3408    0.8095
  H179     H    0.2715    0.2741    0.8630
  O180     O    0.6884    0.0014    0.5553
  H181     H    0.7309   -0.0619    0.5673
  H182     H    0.6241    0.0011    0.5787
  O183     O    0.4950    0.1904    0.6891
  H184     H    0.4976    0.1889    0.7297
  H185     H    0.5572    0.2331    0.6787
  O186     O    0.8086    0.8149    0.5914
  H187     H    0.8373    0.7747    0.5605
  H188     H    0.8735    0.8362    0.6125
  O189     O    0.4977    0.8078    0.8100
  H190     H    0.4976    0.8202    0.7696
  H191     H    0.4997    0.8792    0.8254
  O192     O    0.8127    0.3905    0.7497
  H193     H    0.7702    0.3671    0.7182
  H194     H    0.7698    0.3665    0.7812
  O195     O    0.3118   -0.0054    0.9430
  H196     H    0.3763   -0.0036    0.9195
  H197     H    0.2689    0.0578    0.9317
  O198     O    0.5043    0.1820    0.8086
  H199     H    0.5648    0.2255    0.8190
  H200     H    0.4387    0.2268    0.8188
  O201     O    0.3157    0.6828    0.8426
  H202     H    0.3814    0.7237    0.8322
  H203     H    0.3431    0.6207    0.8632
  O204     O    0.8850    0.6995    0.4983
  H205     H    0.9594    0.6836    0.4995
  H206     H    0.8477    0.6251    0.4993
  O207     O    0.8170    0.8209    0.9120
  H208     H    0.7714    0.7737    0.8879
  H209     H    0.8777    0.8415    0.8898
  O210     O    0.0064    0.1085    0.6561
  H211     H    0.0048    0.1546    0.6883
  H212     H   -0.0576    0.1313    0.6348
  O213     O    0.8154    0.1800    0.5961
  H214     H    0.8365    0.2221    0.5634
  H215     H    0.7728    0.1198    0.5820
  O216     O    0.8095    0.6224    0.7497
  H217     H    0.7672    0.6431    0.7181
  H218     H    0.8086    0.5418    0.7495
  O219     O    0.7460    0.5003    0.5025
  H220     H    0.7915    0.4346    0.5010
  H221     H    0.7021    0.4972    0.4694
  O222     O   -0.0057    0.8870    0.8477
  H223     H    0.0574    0.8625    0.8690
  H224     H   -0.0045    0.8416    0.8150
  O225     O    0.6816    0.6793    0.8440
  H226     H    0.7221    0.6604    0.8110
  H227     H    0.6207    0.7238    0.8309
  O228     O    0.5020   -0.0037    0.6248
  H229     H    0.4355   -0.0010    0.6027
  H230     H    0.4995    0.0628    0.6467
  O231     O    0.0023    0.1154    0.8450
  H232     H   -0.0617    0.1374    0.8670
  H233     H    0.0010    0.0367    0.8456
  O234     O    0.1911    0.6184    0.7481
  H235     H    0.2348    0.6393    0.7801
  H236     H    0.1918    0.5393    0.7483
  O237     O    0.3767    0.4985    0.5928
  H238     H    0.3559    0.5614    0.6143
  H239     H    0.4572    0.4980    0.5941
  O240     O    0.3846    0.5004    0.9030
  H241     H    0.3376    0.5001    0.9358
  H242     H    0.3600    0.4388    0.8819
  O243     O    0.1901    0.1812    0.9088
  H244     H    0.1632    0.2239    0.9387
  H245     H    0.1234    0.1591    0.8884
  O246     O   -0.0032    0.8789    0.6538
  H247     H   -0.0022    0.8459    0.6899
  H248     H   -0.0009    0.9577    0.6608
  O249     O    0.1081    0.6890    0.4997
  H250     H    0.1330    0.7335    0.5309
  H251     H    0.1561    0.6265    0.4996
  O252     O    0.1152    0.3126    0.5014
  H253     H    0.1378    0.2707    0.4692
  H254     H    0.1388    0.2686    0.5322
  O255     O    0.6788    0.3165    0.6615
  H256     H    0.7248    0.2707    0.6377
  H257     H    0.6584    0.3778    0.6389
  O258     O    0.6882    0.6793    0.6586
  H259     H    0.7301    0.7263    0.6355
  H260     H    0.6232    0.7238    0.6689
  O261     O    0.6125    0.4943    0.5979
  H262     H    0.6572    0.4944    0.5649
  H263     H    0.6371    0.5583    0.6184
  O264     O    0.1770    0.8126    0.9112
  H265     H    0.2220    0.8753    0.9215
  H266     H    0.2247    0.7680    0.8883
  O267     O    0.4995   -0.0036    0.8730
  H268     H    0.5020    0.0627    0.8513
  H269     H    0.5653   -0.0001    0.8959
  O270     O    0.2530    0.5073    0.4987
  H271     H    0.2075    0.4394    0.5000
  H272     H    0.2956    0.5047    0.5311
  O273     O    0.6860    0.0071    0.9382
  H274     H    0.7301   -0.0557    0.9276
  H275     H    0.6869    0.0062    0.9781
 Me276    Me    0.5000    0.5000    0.2500
G14277   G14    0.0000    0.5000    0.6250
G14278   G14    0.0000    0.5000    0.1250
G14279   G14    0.5000    0.2500    0.5000
G14280   G14    0.5000    0.7500    0.5000
G14281   G14    0.5000    0.2500    0.0000
G14282   G14    0.5000    0.7500    0.0000

